notebook_tutorials/synthetic_net_opendss/master_sample_43.dss
clear
new circuit.synthetic_net basekv=157.6864406779661 pu=1.0 phases=3
edit Vsource.source bus1=bus_68.1.2.3

!---------------- LINES ----------------

new linecode.LCode_0 nphases=1 rmatrix=[0.946320] xmatrix=[1.242115] units=km
new line.line_0 bus1=bus_0.1 bus2=bus_1.1 linecode=LCode_0 length=1.0 units=km
new linecode.LCode_1 nphases=1 rmatrix=[1.224917] xmatrix=[1.242115] units=km
new line.line_1 bus1=bus_0.1 bus2=bus_2.1 linecode=LCode_1 length=1.0 units=km
new linecode.LCode_2 nphases=1 rmatrix=[1.197521] xmatrix=[1.383008] units=km
new line.line_2 bus1=bus_3.1 bus2=bus_4.1 linecode=LCode_2 length=1.0 units=km
new linecode.LCode_3 nphases=1 rmatrix=[0.664483] xmatrix=[1.377305] units=km
new line.line_3 bus1=bus_2.1 bus2=bus_4.1 linecode=LCode_3 length=1.0 units=km
new linecode.LCode_4 nphases=1 rmatrix=[0.747796] xmatrix=[1.261952] units=km
new line.line_4 bus1=bus_4.1 bus2=bus_5.1 linecode=LCode_4 length=1.0 units=km
new linecode.LCode_5 nphases=1 rmatrix=[0.508459] xmatrix=[1.294810] units=km
new line.line_5 bus1=bus_5.1 bus2=bus_6.1 linecode=LCode_5 length=1.0 units=km
new linecode.LCode_6 nphases=1 rmatrix=[0.874048] xmatrix=[1.480687] units=km
new line.line_6 bus1=bus_7.1 bus2=bus_8.1 linecode=LCode_6 length=1.0 units=km
new linecode.LCode_7 nphases=1 rmatrix=[0.615412] xmatrix=[1.242115] units=km
new line.line_7 bus1=bus_8.1 bus2=bus_9.1 linecode=LCode_7 length=1.0 units=km
new linecode.LCode_8 nphases=1 rmatrix=[0.863149] xmatrix=[1.368077] units=km
new line.line_8 bus1=bus_3.1 bus2=bus_10.1 linecode=LCode_8 length=1.0 units=km
new linecode.LCode_9 nphases=1 rmatrix=[0.459802] xmatrix=[1.242115] units=km
new line.line_9 bus1=bus_4.1 bus2=bus_10.1 linecode=LCode_9 length=1.0 units=km
new linecode.LCode_10 nphases=1 rmatrix=[0.601113] xmatrix=[1.330948] units=km
new line.line_10 bus1=bus_10.1 bus2=bus_11.1 linecode=LCode_10 length=1.0 units=km
new linecode.LCode_11 nphases=1 rmatrix=[0.820077] xmatrix=[1.251520] units=km
new line.line_11 bus1=bus_1.1 bus2=bus_11.1 linecode=LCode_11 length=1.0 units=km
new linecode.LCode_12 nphases=1 rmatrix=[1.263116] xmatrix=[1.242115] units=km
new line.line_12 bus1=bus_2.1 bus2=bus_11.1 linecode=LCode_12 length=1.0 units=km
new linecode.LCode_13 nphases=1 rmatrix=[0.780828] xmatrix=[1.498764] units=km
new line.line_13 bus1=bus_6.1 bus2=bus_11.1 linecode=LCode_13 length=1.0 units=km
new linecode.LCode_14 nphases=1 rmatrix=[0.612905] xmatrix=[1.242115] units=km
new line.line_14 bus1=bus_10.1 bus2=bus_12.1 linecode=LCode_14 length=1.0 units=km
new linecode.LCode_15 nphases=1 rmatrix=[0.849021] xmatrix=[1.242115] units=km
new line.line_15 bus1=bus_11.1 bus2=bus_13.1 linecode=LCode_15 length=1.0 units=km
new linecode.LCode_16 nphases=1 rmatrix=[0.873163] xmatrix=[1.525501] units=km
new line.line_16 bus1=bus_12.1 bus2=bus_14.1 linecode=LCode_16 length=1.0 units=km
new linecode.LCode_17 nphases=1 rmatrix=[0.694980] xmatrix=[1.749028] units=km
new line.line_17 bus1=bus_13.1 bus2=bus_14.1 linecode=LCode_17 length=1.0 units=km
new linecode.LCode_18 nphases=1 rmatrix=[1.089470] xmatrix=[1.527279] units=km
new line.line_18 bus1=bus_11.1 bus2=bus_15.1 linecode=LCode_18 length=1.0 units=km
new linecode.LCode_19 nphases=1 rmatrix=[0.908995] xmatrix=[1.429452] units=km
new line.line_19 bus1=bus_14.1 bus2=bus_16.1 linecode=LCode_19 length=1.0 units=km
new linecode.LCode_20 nphases=1 rmatrix=[1.301717] xmatrix=[1.321804] units=km
new line.line_20 bus1=bus_15.1 bus2=bus_16.1 linecode=LCode_20 length=1.0 units=km
new linecode.LCode_21 nphases=1 rmatrix=[0.616823] xmatrix=[1.260966] units=km
new line.line_21 bus1=bus_16.1 bus2=bus_17.1 linecode=LCode_21 length=1.0 units=km
new linecode.LCode_25 nphases=1 rmatrix=[1.007899] xmatrix=[1.242115] units=km
new line.line_25 bus1=bus_19.3 bus2=bus_20.3 linecode=LCode_25 length=1.0 units=km
new linecode.LCode_26 nphases=1 rmatrix=[0.529376] xmatrix=[1.384077] units=km
new line.line_26 bus1=bus_20.3 bus2=bus_21.3 linecode=LCode_26 length=1.0 units=km
new linecode.LCode_27 nphases=1 rmatrix=[0.738479] xmatrix=[1.242115] units=km
new line.line_27 bus1=bus_21.3 bus2=bus_22.3 linecode=LCode_27 length=1.0 units=km
new linecode.LCode_28 nphases=1 rmatrix=[0.599152] xmatrix=[1.369308] units=km
new line.line_28 bus1=bus_22.3 bus2=bus_23.3 linecode=LCode_28 length=1.0 units=km
new linecode.LCode_29 nphases=1 rmatrix=[0.985714] xmatrix=[1.258671] units=km
new line.line_29 bus1=bus_22.3 bus2=bus_24.3 linecode=LCode_29 length=1.0 units=km
new linecode.LCode_30 nphases=1 rmatrix=[0.254958] xmatrix=[1.242115] units=km
new line.line_30 bus1=bus_24.3 bus2=bus_26.3 linecode=LCode_30 length=1.0 units=km
new linecode.LCode_31 nphases=1 rmatrix=[1.040198] xmatrix=[1.377102] units=km
new line.line_31 bus1=bus_26.3 bus2=bus_27.3 linecode=LCode_31 length=1.0 units=km
new linecode.LCode_32 nphases=1 rmatrix=[1.174228] xmatrix=[1.259389] units=km
new line.line_32 bus1=bus_27.3 bus2=bus_28.3 linecode=LCode_32 length=1.0 units=km
new linecode.LCode_33 nphases=1 rmatrix=[1.095436] xmatrix=[1.242115] units=km
new line.line_33 bus1=bus_7.1 bus2=bus_29.1 linecode=LCode_33 length=1.0 units=km
new linecode.LCode_36 nphases=1 rmatrix=[0.937505] xmatrix=[1.242115] units=km
new line.line_36 bus1=bus_28.3 bus2=bus_30.3 linecode=LCode_36 length=1.0 units=km
new linecode.LCode_37 nphases=1 rmatrix=[0.651778] xmatrix=[1.274440] units=km
new line.line_37 bus1=bus_22.3 bus2=bus_31.3 linecode=LCode_37 length=1.0 units=km
new linecode.LCode_38 nphases=1 rmatrix=[0.772453] xmatrix=[1.242251] units=km
new line.line_38 bus1=bus_30.3 bus2=bus_31.3 linecode=LCode_38 length=1.0 units=km
new linecode.LCode_39 nphases=1 rmatrix=[0.793796] xmatrix=[1.536831] units=km
new line.line_39 bus1=bus_26.3 bus2=bus_31.3 linecode=LCode_39 length=1.0 units=km
new linecode.LCode_40 nphases=1 rmatrix=[1.556393] xmatrix=[1.333101] units=km
new line.line_40 bus1=bus_14.1 bus2=bus_32.1 linecode=LCode_40 length=1.0 units=km
new linecode.LCode_41 nphases=1 rmatrix=[0.403905] xmatrix=[1.506772] units=km
new line.line_41 bus1=bus_18.2 bus2=bus_33.2 linecode=LCode_41 length=1.0 units=km
new linecode.LCode_42 nphases=2 rmatrix=[0.725433 | 0.059160 0.725433] xmatrix=[1.242115 | 1.024695 1.242115] units=km
new line.line_42 bus1=bus_34.1.2 bus2=bus_35.1.2 linecode=LCode_42 length=1.0 units=km
new linecode.LCode_43 nphases=2 rmatrix=[0.257279 | 0.059160 0.257279] xmatrix=[1.290678 | 1.024695 1.290678] units=km
new line.line_43 bus1=bus_34.1.2 bus2=bus_36.1.2 linecode=LCode_43 length=1.0 units=km
new linecode.LCode_44 nphases=2 rmatrix=[0.771714 | 0.059160 0.771714] xmatrix=[1.253344 | 1.024695 1.253344] units=km
new line.line_44 bus1=bus_32.1.2 bus2=bus_36.1.2 linecode=LCode_44 length=1.0 units=km
new linecode.LCode_45 nphases=2 rmatrix=[0.376591 | 0.059160 0.376591] xmatrix=[1.281450 | 1.024695 1.281450] units=km
new line.line_45 bus1=bus_33.1.2 bus2=bus_35.1.2 linecode=LCode_45 length=1.0 units=km
new linecode.LCode_46 nphases=2 rmatrix=[0.772747 | 0.059160 0.772747] xmatrix=[1.242115 | 1.024695 1.242115] units=km
new line.line_46 bus1=bus_33.1.2 bus2=bus_36.1.2 linecode=LCode_46 length=1.0 units=km
new linecode.LCode_47 nphases=2 rmatrix=[0.515679 | 0.059160 0.515679] xmatrix=[1.337493 | 1.024695 1.337493] units=km
new line.line_47 bus1=bus_36.1.2 bus2=bus_38.1.2 linecode=LCode_47 length=1.0 units=km
new linecode.LCode_48 nphases=2 rmatrix=[0.694217 | 0.059160 0.694217] xmatrix=[1.242115 | 1.024695 1.242115] units=km
new line.line_48 bus1=bus_36.1.2 bus2=bus_39.1.2 linecode=LCode_48 length=1.0 units=km
new linecode.LCode_50 nphases=2 rmatrix=[1.303777 | 0.059160 1.303777] xmatrix=[1.390845 | 1.024695 1.390845] units=km
new line.line_50 bus1=bus_38.1.2 bus2=bus_39.1.2 linecode=LCode_50 length=1.0 units=km
new linecode.LCode_51 nphases=2 rmatrix=[0.683828 | 0.059160 0.683828] xmatrix=[1.414843 | 1.024695 1.414843] units=km
new line.line_51 bus1=bus_39.1.2 bus2=bus_40.1.2 linecode=LCode_51 length=1.0 units=km
new linecode.LCode_52 nphases=2 rmatrix=[0.816510 | 0.059160 0.816510] xmatrix=[1.242115 | 1.024695 1.242115] units=km
new line.line_52 bus1=bus_39.1.2 bus2=bus_41.1.2 linecode=LCode_52 length=1.0 units=km
new linecode.LCode_53 nphases=2 rmatrix=[0.769375 | 0.059160 0.769375] xmatrix=[1.242115 | 1.024695 1.242115] units=km
new line.line_53 bus1=bus_40.1.2 bus2=bus_41.1.2 linecode=LCode_53 length=1.0 units=km
new linecode.LCode_54 nphases=1 rmatrix=[0.895309] xmatrix=[1.417707] units=km
new line.line_54 bus1=bus_42.1 bus2=bus_43.1 linecode=LCode_54 length=1.0 units=km
new linecode.LCode_55 nphases=1 rmatrix=[0.474429] xmatrix=[1.570781] units=km
new line.line_55 bus1=bus_33.1 bus2=bus_42.1 linecode=LCode_55 length=1.0 units=km
new linecode.LCode_56 nphases=1 rmatrix=[0.604496] xmatrix=[1.439266] units=km
new line.line_56 bus1=bus_43.1 bus2=bus_44.1 linecode=LCode_56 length=1.0 units=km
new linecode.LCode_58 nphases=2 rmatrix=[0.539038 | 0.059160 0.539038] xmatrix=[1.346209 | 1.024695 1.346209] units=km
new line.line_58 bus1=bus_45.2.3 bus2=bus_46.2.3 linecode=LCode_58 length=1.0 units=km
new linecode.LCode_59 nphases=1 rmatrix=[0.666093] xmatrix=[1.242115] units=km
new line.line_59 bus1=bus_45.2 bus2=bus_47.2 linecode=LCode_59 length=1.0 units=km
new linecode.LCode_60 nphases=1 rmatrix=[0.343504] xmatrix=[1.342724] units=km
new line.line_60 bus1=bus_46.2 bus2=bus_48.2 linecode=LCode_60 length=1.0 units=km
new linecode.LCode_61 nphases=2 rmatrix=[0.668009 | 0.059160 0.668009] xmatrix=[1.242115 | 1.024695 1.242115] units=km
new line.line_61 bus1=bus_41.1.2 bus2=bus_48.1.2 linecode=LCode_61 length=1.0 units=km
new linecode.LCode_62 nphases=2 rmatrix=[0.917856 | 0.059160 0.917856] xmatrix=[1.242115 | 1.024695 1.242115] units=km
new line.line_62 bus1=bus_41.1.2 bus2=bus_48.1.2 linecode=LCode_62 length=1.0 units=km
new linecode.LCode_63 nphases=1 rmatrix=[0.484612] xmatrix=[1.460101] units=km
new line.line_63 bus1=bus_44.1 bus2=bus_48.1 linecode=LCode_63 length=1.0 units=km
new linecode.LCode_64 nphases=2 rmatrix=[1.070403 | 0.059160 1.070403] xmatrix=[1.313631 | 1.024695 1.313631] units=km
new line.line_64 bus1=bus_47.1.2 bus2=bus_48.1.2 linecode=LCode_64 length=1.0 units=km
new linecode.LCode_65 nphases=2 rmatrix=[0.516964 | 0.059160 0.516964] xmatrix=[1.521741 | 1.024695 1.521741] units=km
new line.line_65 bus1=bus_48.1.2 bus2=bus_49.1.2 linecode=LCode_65 length=1.0 units=km
new linecode.LCode_66 nphases=2 rmatrix=[0.793678 | 0.059160 0.793678] xmatrix=[1.852000 | 1.024695 1.852000] units=km
new line.line_66 bus1=bus_48.1.2 bus2=bus_50.1.2 linecode=LCode_66 length=1.0 units=km
new linecode.LCode_67 nphases=2 rmatrix=[0.952721 | 0.059160 0.952721] xmatrix=[1.242115 | 1.024695 1.242115] units=km
new line.line_67 bus1=bus_50.1.2 bus2=bus_51.1.2 linecode=LCode_67 length=1.0 units=km
new linecode.LCode_68 nphases=1 rmatrix=[0.456991] xmatrix=[1.542584] units=km
new line.line_68 bus1=bus_51.1 bus2=bus_52.1 linecode=LCode_68 length=1.0 units=km
new linecode.LCode_69 nphases=1 rmatrix=[0.245858] xmatrix=[1.563942] units=km
new line.line_69 bus1=bus_52.1 bus2=bus_53.1 linecode=LCode_69 length=1.0 units=km
new linecode.LCode_70 nphases=1 rmatrix=[0.270099] xmatrix=[1.350313] units=km
new line.line_70 bus1=bus_48.1 bus2=bus_53.1 linecode=LCode_70 length=1.0 units=km
new linecode.LCode_71 nphases=1 rmatrix=[0.233483] xmatrix=[1.247690] units=km
new line.line_71 bus1=bus_48.1 bus2=bus_53.1 linecode=LCode_71 length=1.0 units=km
new linecode.LCode_72 nphases=1 rmatrix=[0.973951] xmatrix=[1.470483] units=km
new line.line_72 bus1=bus_53.1 bus2=bus_54.1 linecode=LCode_72 length=1.0 units=km
new linecode.LCode_73 nphases=1 rmatrix=[1.350704] xmatrix=[1.242115] units=km
new line.line_73 bus1=bus_53.1 bus2=bus_55.1 linecode=LCode_73 length=1.0 units=km
new linecode.LCode_74 nphases=1 rmatrix=[0.758842] xmatrix=[1.254338] units=km
new line.line_74 bus1=bus_54.1 bus2=bus_55.1 linecode=LCode_74 length=1.0 units=km
new linecode.LCode_75 nphases=1 rmatrix=[0.337994] xmatrix=[1.245960] units=km
new line.line_75 bus1=bus_55.1 bus2=bus_56.1 linecode=LCode_75 length=1.0 units=km
new linecode.LCode_76 nphases=2 rmatrix=[0.904229 | 0.059160 0.904229] xmatrix=[1.373124 | 1.024695 1.373124] units=km
new line.line_76 bus1=bus_49.1.2 bus2=bus_56.1.2 linecode=LCode_76 length=1.0 units=km
new linecode.LCode_77 nphases=1 rmatrix=[0.871909] xmatrix=[1.282068] units=km
new line.line_77 bus1=bus_55.1 bus2=bus_57.1 linecode=LCode_77 length=1.0 units=km
new linecode.LCode_78 nphases=2 rmatrix=[0.625241 | 0.059160 0.625241] xmatrix=[1.242115 | 1.024695 1.242115] units=km
new line.line_78 bus1=bus_50.1.2 bus2=bus_57.1.2 linecode=LCode_78 length=1.0 units=km
new linecode.LCode_79 nphases=1 rmatrix=[0.196626] xmatrix=[1.263501] units=km
new line.line_79 bus1=bus_53.1 bus2=bus_58.1 linecode=LCode_79 length=1.0 units=km
new linecode.LCode_80 nphases=1 rmatrix=[0.758428] xmatrix=[1.242115] units=km
new line.line_80 bus1=bus_55.1 bus2=bus_58.1 linecode=LCode_80 length=1.0 units=km
new linecode.LCode_81 nphases=1 rmatrix=[0.739718] xmatrix=[1.508186] units=km
new line.line_81 bus1=bus_55.1 bus2=bus_58.1 linecode=LCode_81 length=1.0 units=km
new linecode.LCode_82 nphases=1 rmatrix=[0.789454] xmatrix=[1.520788] units=km
new line.line_82 bus1=bus_54.1 bus2=bus_58.1 linecode=LCode_82 length=1.0 units=km
new linecode.LCode_83 nphases=1 rmatrix=[0.739162] xmatrix=[1.242115] units=km
new line.line_83 bus1=bus_58.1 bus2=bus_59.1 linecode=LCode_83 length=1.0 units=km
new linecode.LCode_84 nphases=1 rmatrix=[0.356887] xmatrix=[1.242115] units=km
new line.line_84 bus1=bus_58.1 bus2=bus_60.1 linecode=LCode_84 length=1.0 units=km
new linecode.LCode_85 nphases=1 rmatrix=[0.256090] xmatrix=[1.242115] units=km
new line.line_85 bus1=bus_59.1 bus2=bus_60.1 linecode=LCode_85 length=1.0 units=km
new linecode.LCode_88 nphases=2 rmatrix=[0.936330 | 0.059160 0.936330] xmatrix=[1.242115 | 1.024695 1.242115] units=km
new line.line_88 bus1=bus_62.2.3 bus2=bus_63.2.3 linecode=LCode_88 length=1.0 units=km
new linecode.LCode_89 nphases=2 rmatrix=[0.681201 | 0.059160 0.681201] xmatrix=[1.242115 | 1.024695 1.242115] units=km
new line.line_89 bus1=bus_37.2.3 bus2=bus_64.2.3 linecode=LCode_89 length=1.0 units=km
new linecode.LCode_90 nphases=2 rmatrix=[0.568690 | 0.059160 0.568690] xmatrix=[1.242115 | 1.024695 1.242115] units=km
new line.line_90 bus1=bus_63.2.3 bus2=bus_64.2.3 linecode=LCode_90 length=1.0 units=km
new linecode.LCode_91 nphases=2 rmatrix=[0.397602 | 0.059160 0.397602] xmatrix=[1.242115 | 1.024695 1.242115] units=km
new line.line_91 bus1=bus_48.1.2 bus2=bus_65.1.2 linecode=LCode_91 length=1.0 units=km
new linecode.LCode_92 nphases=2 rmatrix=[0.982398 | 0.059160 0.982398] xmatrix=[1.251309 | 1.024695 1.251309] units=km
new line.line_92 bus1=bus_48.1.2 bus2=bus_65.1.2 linecode=LCode_92 length=1.0 units=km
new linecode.LCode_93 nphases=1 rmatrix=[0.857278] xmatrix=[1.242115] units=km
new line.line_93 bus1=bus_61.2 bus2=bus_65.2 linecode=LCode_93 length=1.0 units=km
new linecode.LCode_94 nphases=1 rmatrix=[0.962540] xmatrix=[1.242115] units=km
new line.line_94 bus1=bus_61.2 bus2=bus_66.2 linecode=LCode_94 length=1.0 units=km
new linecode.LCode_95 nphases=2 rmatrix=[0.268738 | 0.059160 0.268738] xmatrix=[1.320299 | 1.024695 1.320299] units=km
new line.line_95 bus1=bus_65.1.2 bus2=bus_66.1.2 linecode=LCode_95 length=1.0 units=km
new linecode.LCode_96 nphases=2 rmatrix=[0.767761 | 0.059160 0.767761] xmatrix=[1.351467 | 1.024695 1.351467] units=km
new line.line_96 bus1=bus_46.2.3 bus2=bus_68.2.3 linecode=LCode_96 length=1.0 units=km
new linecode.LCode_97 nphases=2 rmatrix=[0.482086 | 0.059160 0.482086] xmatrix=[1.307033 | 1.024695 1.307033] units=km
new line.line_97 bus1=bus_48.1.2 bus2=bus_68.1.2 linecode=LCode_97 length=1.0 units=km
new linecode.LCode_98 nphases=2 rmatrix=[0.256025 | 0.059160 0.256025] xmatrix=[1.242115 | 1.024695 1.242115] units=km
new line.line_98 bus1=bus_68.2.3 bus2=bus_69.2.3 linecode=LCode_98 length=1.0 units=km
new linecode.LCode_99 nphases=2 rmatrix=[0.892959 | 0.059160 0.892959] xmatrix=[1.358181 | 1.024695 1.358181] units=km
new line.line_99 bus1=bus_23.2.3 bus2=bus_69.2.3 linecode=LCode_99 length=1.0 units=km
new linecode.LCode_100 nphases=2 rmatrix=[0.838093 | 0.059160 0.838093] xmatrix=[1.277247 | 1.024695 1.277247] units=km
new line.line_100 bus1=bus_69.2.3 bus2=bus_70.2.3 linecode=LCode_100 length=1.0 units=km
new linecode.LCode_101 nphases=2 rmatrix=[0.696316 | 0.059160 0.696316] xmatrix=[1.242115 | 1.024695 1.242115] units=km
new line.line_101 bus1=bus_23.2.3 bus2=bus_71.2.3 linecode=LCode_101 length=1.0 units=km
new linecode.LCode_102 nphases=2 rmatrix=[0.235410 | 0.059160 0.235410] xmatrix=[1.354742 | 1.024695 1.354742] units=km
new line.line_102 bus1=bus_70.2.3 bus2=bus_71.2.3 linecode=LCode_102 length=1.0 units=km
new linecode.LCode_104 nphases=2 rmatrix=[0.372972 | 0.059160 0.372972] xmatrix=[1.242115 | 1.024695 1.242115] units=km
new line.line_104 bus1=bus_69.2.3 bus2=bus_73.2.3 linecode=LCode_104 length=1.0 units=km
new linecode.LCode_106 nphases=1 rmatrix=[0.680079] xmatrix=[1.339892] units=km
new line.line_106 bus1=bus_68.1 bus2=bus_74.1 linecode=LCode_106 length=1.0 units=km
new linecode.LCode_108 nphases=1 rmatrix=[0.758621] xmatrix=[1.441884] units=km
new line.line_108 bus1=bus_75.1 bus2=bus_76.1 linecode=LCode_108 length=1.0 units=km
new linecode.LCode_109 nphases=1 rmatrix=[0.872199] xmatrix=[1.293964] units=km
new line.line_109 bus1=bus_68.1 bus2=bus_76.1 linecode=LCode_109 length=1.0 units=km
new linecode.LCode_110 nphases=1 rmatrix=[0.260482] xmatrix=[1.242115] units=km
new line.line_110 bus1=bus_74.1 bus2=bus_76.1 linecode=LCode_110 length=1.0 units=km
new linecode.LCode_111 nphases=1 rmatrix=[0.746386] xmatrix=[1.284298] units=km
new line.line_111 bus1=bus_76.1 bus2=bus_77.1 linecode=LCode_111 length=1.0 units=km
new linecode.LCode_112 nphases=1 rmatrix=[1.092539] xmatrix=[1.276993] units=km
new line.line_112 bus1=bus_77.1 bus2=bus_78.1 linecode=LCode_112 length=1.0 units=km
new linecode.LCode_113 nphases=1 rmatrix=[0.735977] xmatrix=[1.242115] units=km
new line.line_113 bus1=bus_76.1 bus2=bus_79.1 linecode=LCode_113 length=1.0 units=km
new linecode.LCode_114 nphases=1 rmatrix=[0.273990] xmatrix=[1.242115] units=km
new line.line_114 bus1=bus_76.1 bus2=bus_79.1 linecode=LCode_114 length=1.0 units=km
new linecode.LCode_115 nphases=1 rmatrix=[0.916416] xmatrix=[1.264853] units=km
new line.line_115 bus1=bus_78.1 bus2=bus_79.1 linecode=LCode_115 length=1.0 units=km
new linecode.LCode_116 nphases=1 rmatrix=[0.610904] xmatrix=[1.643411] units=km
new line.line_116 bus1=bus_76.1 bus2=bus_81.1 linecode=LCode_116 length=1.0 units=km
new linecode.LCode_117 nphases=1 rmatrix=[0.438896] xmatrix=[1.297977] units=km
new line.line_117 bus1=bus_81.1 bus2=bus_82.1 linecode=LCode_117 length=1.0 units=km
new linecode.LCode_118 nphases=1 rmatrix=[1.089846] xmatrix=[1.320022] units=km
new line.line_118 bus1=bus_82.1 bus2=bus_83.1 linecode=LCode_118 length=1.0 units=km
new linecode.LCode_119 nphases=1 rmatrix=[0.563696] xmatrix=[1.432725] units=km
new line.line_119 bus1=bus_82.1 bus2=bus_84.1 linecode=LCode_119 length=1.0 units=km
new linecode.LCode_120 nphases=1 rmatrix=[0.769092] xmatrix=[1.242115] units=km
new line.line_120 bus1=bus_83.1 bus2=bus_84.1 linecode=LCode_120 length=1.0 units=km
new linecode.LCode_121 nphases=1 rmatrix=[0.976928] xmatrix=[1.484823] units=km
new line.line_121 bus1=bus_84.1 bus2=bus_85.1 linecode=LCode_121 length=1.0 units=km
new linecode.LCode_122 nphases=1 rmatrix=[0.733936] xmatrix=[1.366253] units=km
new line.line_122 bus1=bus_84.1 bus2=bus_87.1 linecode=LCode_122 length=1.0 units=km
new linecode.LCode_123 nphases=1 rmatrix=[0.899157] xmatrix=[1.242115] units=km
new line.line_123 bus1=bus_84.1 bus2=bus_88.1 linecode=LCode_123 length=1.0 units=km
new linecode.LCode_124 nphases=1 rmatrix=[0.675043] xmatrix=[1.384714] units=km
new line.line_124 bus1=bus_87.1 bus2=bus_88.1 linecode=LCode_124 length=1.0 units=km
new linecode.LCode_125 nphases=1 rmatrix=[0.698227] xmatrix=[1.533760] units=km
new line.line_125 bus1=bus_88.1 bus2=bus_89.1 linecode=LCode_125 length=1.0 units=km
new linecode.LCode_126 nphases=1 rmatrix=[0.724631] xmatrix=[1.242115] units=km
new line.line_126 bus1=bus_88.1 bus2=bus_89.1 linecode=LCode_126 length=1.0 units=km
new linecode.LCode_127 nphases=1 rmatrix=[0.721666] xmatrix=[1.580120] units=km
new line.line_127 bus1=bus_89.1 bus2=bus_90.1 linecode=LCode_127 length=1.0 units=km
new linecode.LCode_128 nphases=1 rmatrix=[1.004584] xmatrix=[1.919204] units=km
new line.line_128 bus1=bus_88.1 bus2=bus_91.1 linecode=LCode_128 length=1.0 units=km
new linecode.LCode_129 nphases=1 rmatrix=[0.993227] xmatrix=[1.242115] units=km
new line.line_129 bus1=bus_88.1 bus2=bus_91.1 linecode=LCode_129 length=1.0 units=km
new linecode.LCode_130 nphases=1 rmatrix=[0.370316] xmatrix=[1.435355] units=km
new line.line_130 bus1=bus_90.1 bus2=bus_91.1 linecode=LCode_130 length=1.0 units=km
new linecode.LCode_131 nphases=1 rmatrix=[0.602888] xmatrix=[1.242115] units=km
new line.line_131 bus1=bus_91.1 bus2=bus_92.1 linecode=LCode_131 length=1.0 units=km
new linecode.LCode_132 nphases=1 rmatrix=[0.745227] xmatrix=[1.289868] units=km
new line.line_132 bus1=bus_91.1 bus2=bus_93.1 linecode=LCode_132 length=1.0 units=km
new linecode.LCode_133 nphases=1 rmatrix=[0.230623] xmatrix=[1.341663] units=km
new line.line_133 bus1=bus_92.1 bus2=bus_93.1 linecode=LCode_133 length=1.0 units=km
new linecode.LCode_134 nphases=1 rmatrix=[1.067722] xmatrix=[1.354664] units=km
new line.line_134 bus1=bus_93.1 bus2=bus_94.1 linecode=LCode_134 length=1.0 units=km
new linecode.LCode_135 nphases=1 rmatrix=[1.041706] xmatrix=[1.242115] units=km
new line.line_135 bus1=bus_79.1 bus2=bus_95.1 linecode=LCode_135 length=1.0 units=km
new linecode.LCode_136 nphases=1 rmatrix=[0.653499] xmatrix=[1.252137] units=km
new line.line_136 bus1=bus_81.1 bus2=bus_95.1 linecode=LCode_136 length=1.0 units=km
new linecode.LCode_137 nphases=1 rmatrix=[0.561616] xmatrix=[1.283621] units=km
new line.line_137 bus1=bus_93.1 bus2=bus_95.1 linecode=LCode_137 length=1.0 units=km
new linecode.LCode_138 nphases=1 rmatrix=[0.342151] xmatrix=[1.414668] units=km
new line.line_138 bus1=bus_79.1 bus2=bus_96.1 linecode=LCode_138 length=1.0 units=km
new linecode.LCode_139 nphases=1 rmatrix=[0.496362] xmatrix=[1.430250] units=km
new line.line_139 bus1=bus_79.1 bus2=bus_97.1 linecode=LCode_139 length=1.0 units=km
new linecode.LCode_140 nphases=1 rmatrix=[0.251656] xmatrix=[1.515774] units=km
new line.line_140 bus1=bus_79.1 bus2=bus_98.1 linecode=LCode_140 length=1.0 units=km
new linecode.LCode_141 nphases=1 rmatrix=[0.562644] xmatrix=[1.242115] units=km
new line.line_141 bus1=bus_91.1 bus2=bus_99.1 linecode=LCode_141 length=1.0 units=km
new linecode.LCode_142 nphases=1 rmatrix=[0.774689] xmatrix=[1.358724] units=km
new line.line_142 bus1=bus_93.1 bus2=bus_99.1 linecode=LCode_142 length=1.0 units=km
new linecode.LCode_143 nphases=1 rmatrix=[0.458115] xmatrix=[1.346629] units=km
new line.line_143 bus1=bus_94.1 bus2=bus_95.1 linecode=LCode_143 length=1.0 units=km
new linecode.LCode_144 nphases=1 rmatrix=[0.671276] xmatrix=[1.470961] units=km
new line.line_144 bus1=bus_95.1 bus2=bus_96.1 linecode=LCode_144 length=1.0 units=km
new linecode.LCode_145 nphases=1 rmatrix=[0.188556] xmatrix=[1.261231] units=km
new line.line_145 bus1=bus_97.1 bus2=bus_99.1 linecode=LCode_145 length=1.0 units=km
new linecode.LCode_146 nphases=1 rmatrix=[0.273313] xmatrix=[1.391591] units=km
new line.line_146 bus1=bus_98.1 bus2=bus_99.1 linecode=LCode_146 length=1.0 units=km
new linecode.LCode_147 nphases=1 rmatrix=[0.922970] xmatrix=[1.242115] units=km
new line.line_147 bus1=bus_99.1 bus2=bus_100.1 linecode=LCode_147 length=1.0 units=km
new linecode.LCode_148 nphases=1 rmatrix=[0.578540] xmatrix=[1.242115] units=km
new line.line_148 bus1=bus_91.1 bus2=bus_101.1 linecode=LCode_148 length=1.0 units=km
new linecode.LCode_149 nphases=1 rmatrix=[0.393810] xmatrix=[1.242115] units=km
new line.line_149 bus1=bus_100.1 bus2=bus_101.1 linecode=LCode_149 length=1.0 units=km
new linecode.LCode_150 nphases=1 rmatrix=[0.809426] xmatrix=[1.264154] units=km
new line.line_150 bus1=bus_99.1 bus2=bus_102.1 linecode=LCode_150 length=1.0 units=km
new linecode.LCode_151 nphases=1 rmatrix=[1.191348] xmatrix=[1.242115] units=km
new line.line_151 bus1=bus_99.1 bus2=bus_103.1 linecode=LCode_151 length=1.0 units=km
new linecode.LCode_152 nphases=1 rmatrix=[1.014162] xmatrix=[1.530683] units=km
new line.line_152 bus1=bus_102.1 bus2=bus_103.1 linecode=LCode_152 length=1.0 units=km
new linecode.LCode_153 nphases=1 rmatrix=[0.811862] xmatrix=[1.315816] units=km
new line.line_153 bus1=bus_102.1 bus2=bus_104.1 linecode=LCode_153 length=1.0 units=km
new linecode.LCode_154 nphases=1 rmatrix=[0.668173] xmatrix=[1.242115] units=km
new line.line_154 bus1=bus_99.1 bus2=bus_105.1 linecode=LCode_154 length=1.0 units=km
new linecode.LCode_155 nphases=1 rmatrix=[0.680956] xmatrix=[1.242115] units=km
new line.line_155 bus1=bus_103.1 bus2=bus_104.1 linecode=LCode_155 length=1.0 units=km
new linecode.LCode_156 nphases=1 rmatrix=[0.428966] xmatrix=[1.280485] units=km
new line.line_156 bus1=bus_104.1 bus2=bus_105.1 linecode=LCode_156 length=1.0 units=km
new linecode.LCode_157 nphases=1 rmatrix=[0.680063] xmatrix=[1.246105] units=km
new line.line_157 bus1=bus_104.1 bus2=bus_106.1 linecode=LCode_157 length=1.0 units=km
new linecode.LCode_158 nphases=1 rmatrix=[0.772470] xmatrix=[1.245097] units=km
new line.line_158 bus1=bus_104.1 bus2=bus_107.1 linecode=LCode_158 length=1.0 units=km
new linecode.LCode_159 nphases=1 rmatrix=[0.646138] xmatrix=[1.242115] units=km
new line.line_159 bus1=bus_105.1 bus2=bus_106.1 linecode=LCode_159 length=1.0 units=km
new linecode.LCode_160 nphases=1 rmatrix=[0.960433] xmatrix=[1.242115] units=km
new line.line_160 bus1=bus_107.1 bus2=bus_108.1 linecode=LCode_160 length=1.0 units=km
new linecode.LCode_161 nphases=1 rmatrix=[1.012374] xmatrix=[1.374165] units=km
new line.line_161 bus1=bus_102.1 bus2=bus_109.1 linecode=LCode_161 length=1.0 units=km
new linecode.LCode_162 nphases=1 rmatrix=[0.367857] xmatrix=[1.272527] units=km
new line.line_162 bus1=bus_108.1 bus2=bus_109.1 linecode=LCode_162 length=1.0 units=km
new linecode.LCode_163 nphases=1 rmatrix=[0.590565] xmatrix=[1.242115] units=km
new line.line_163 bus1=bus_109.1 bus2=bus_110.1 linecode=LCode_163 length=1.0 units=km
new linecode.LCode_164 nphases=1 rmatrix=[0.767057] xmatrix=[1.242115] units=km
new line.line_164 bus1=bus_109.1 bus2=bus_111.1 linecode=LCode_164 length=1.0 units=km
new linecode.LCode_166 nphases=1 rmatrix=[1.114633] xmatrix=[1.242115] units=km
new line.line_166 bus1=bus_31.3 bus2=bus_112.3 linecode=LCode_166 length=1.0 units=km
new linecode.LCode_167 nphases=1 rmatrix=[0.366434] xmatrix=[1.242115] units=km
new line.line_167 bus1=bus_31.3 bus2=bus_113.3 linecode=LCode_167 length=1.0 units=km
new linecode.LCode_168 nphases=1 rmatrix=[0.911932] xmatrix=[1.788041] units=km
new line.line_168 bus1=bus_26.3 bus2=bus_114.3 linecode=LCode_168 length=1.0 units=km
new linecode.LCode_169 nphases=1 rmatrix=[0.707578] xmatrix=[1.242115] units=km
new line.line_169 bus1=bus_113.3 bus2=bus_114.3 linecode=LCode_169 length=1.0 units=km
new linecode.LCode_170 nphases=1 rmatrix=[0.473100] xmatrix=[1.242115] units=km
new line.line_170 bus1=bus_11.1 bus2=bus_116.1 linecode=LCode_170 length=1.0 units=km
new linecode.LCode_171 nphases=1 rmatrix=[1.110407] xmatrix=[1.242115] units=km
new line.line_171 bus1=bus_74.1 bus2=bus_117.1 linecode=LCode_171 length=1.0 units=km
new linecode.LCode_172 nphases=1 rmatrix=[1.187134] xmatrix=[1.595573] units=km
new line.line_172 bus1=bus_75.1 bus2=bus_117.1 linecode=LCode_172 length=1.0 units=km

!---------------- LOADS ----------------

new load.load_0_A bus1=bus_0.1 Phases=1 kv=157.6864406779661 kw=1779.3975114030031 kvar=583.6423837401851 vminpu=0.85
new load.load_1_A bus1=bus_1.1 Phases=1 kv=157.6864406779661 kw=2088.6115685352725 kvar=685.0645944795695 vminpu=0.85
new load.load_2_A bus1=bus_2.1 Phases=1 kv=157.6864406779661 kw=1833.515849012423 kvar=601.3931984760748 vminpu=0.85
new load.load_3_A bus1=bus_3.1 Phases=1 kv=157.6864406779661 kw=1884.9817137450564 kvar=618.2740021083786 vminpu=0.85
new load.load_4_A bus1=bus_4.1 Phases=1 kv=157.6864406779661 kw=1271.1649061380515 kvar=416.9420892132809 vminpu=0.85
new load.load_5_A bus1=bus_5.1 Phases=1 kv=157.6864406779661 kw=2391.715469035641 kvar=784.4826738436902 vminpu=0.85
new load.load_6_A bus1=bus_6.1 Phases=1 kv=157.6864406779661 kw=1450.6316395420276 kvar=475.8071777697851 vminpu=0.85
new load.load_7_A bus1=bus_7.1 Phases=1 kv=157.6864406779661 kw=2354.4671814063427 kvar=772.2652355012805 vminpu=0.85
new load.load_8_A bus1=bus_8.1 Phases=1 kv=157.6864406779661 kw=1988.7574197125748 kvar=652.3124336657246 vminpu=0.85
new load.load_9_A bus1=bus_9.1 Phases=1 kv=157.6864406779661 kw=2197.9857842681386 kvar=720.9393372399495 vminpu=0.85
new load.load_10_A bus1=bus_10.1 Phases=1 kv=157.6864406779661 kw=1604.2195268584212 kvar=526.1840048095622 vminpu=0.85
new load.load_11_A bus1=bus_11.1 Phases=1 kv=157.6864406779661 kw=1414.4906208843531 kvar=463.9529236500678 vminpu=0.85
new load.load_12_A bus1=bus_12.1 Phases=1 kv=157.6864406779661 kw=2309.388607435053 kvar=757.4794632386975 vminpu=0.85
new load.load_13_A bus1=bus_13.1 Phases=1 kv=157.6864406779661 kw=2298.7036879020507 kvar=753.9748096318726 vminpu=0.85
new load.load_14_A bus1=bus_14.1 Phases=1 kv=157.6864406779661 kw=1320.6004323913153 kvar=433.1569418243514 vminpu=0.85
new load.load_15_A bus1=bus_15.1 Phases=1 kv=157.6864406779661 kw=2353.1300729835634 kvar=771.8266639386088 vminpu=0.85
new load.load_16_A bus1=bus_16.1 Phases=1 kv=157.6864406779661 kw=1905.9198355105332 kvar=625.1417060474549 vminpu=0.85
new load.load_17_A bus1=bus_17.1 Phases=1 kv=157.6864406779661 kw=1626.99470999442 kvar=533.6542648781698 vminpu=0.85
new load.load_18_B bus1=bus_18.2 Phases=1 kv=157.6864406779661 kw=2121.9930404381557 kvar=696.0137172637151 vminpu=0.85
new load.load_19_C bus1=bus_19.3 Phases=1 kv=157.6864406779661 kw=1734.0481535628496 kvar=568.7677943686147 vminpu=0.85
new load.load_20_C bus1=bus_20.3 Phases=1 kv=157.6864406779661 kw=1854.5192206240815 kvar=608.2823043646988 vminpu=0.85
new load.load_21_C bus1=bus_21.3 Phases=1 kv=157.6864406779661 kw=2288.526982419325 kvar=750.6368502335387 vminpu=0.85
new load.load_22_C bus1=bus_22.3 Phases=1 kv=157.6864406779661 kw=1702.1730400886752 kvar=558.3127571490854 vminpu=0.85
new load.load_23_B bus1=bus_23.2 Phases=1 kv=157.6864406779661 kw=509.8735647578365 kvar=167.2385292405704 vminpu=0.85
new load.load_23_C bus1=bus_23.3 Phases=1 kv=157.6864406779661 kw=1685.5042825187722 kvar=552.8454046661573 vminpu=0.85
new load.load_24_C bus1=bus_24.3 Phases=1 kv=157.6864406779661 kw=1857.360485036674 kvar=609.2142390920291 vminpu=0.85
new load.load_25_C bus1=bus_25.3 Phases=1 kv=157.6864406779661 kw=2281.92589534704 kvar=748.4716936738291 vminpu=0.85
new load.load_26_C bus1=bus_26.3 Phases=1 kv=157.6864406779661 kw=2155.785418331241 kvar=707.0976172126472 vminpu=0.85
new load.load_27_C bus1=bus_27.3 Phases=1 kv=157.6864406779661 kw=2505.5888392207166 kvar=821.8331392643951 vminpu=0.85
new load.load_28_C bus1=bus_28.3 Phases=1 kv=157.6864406779661 kw=1934.199444891425 kvar=634.4174179243875 vminpu=0.85
new load.load_29_A bus1=bus_29.1 Phases=1 kv=157.6864406779661 kw=2093.733368202369 kvar=686.744544770377 vminpu=0.85
new load.load_30_C bus1=bus_30.3 Phases=1 kv=157.6864406779661 kw=2574.6574419434 kvar=844.4876409574352 vminpu=0.85
new load.load_31_C bus1=bus_31.3 Phases=1 kv=157.6864406779661 kw=2600.4080071604544 kvar=852.933826348629 vminpu=0.85
new load.load_32_A bus1=bus_32.1 Phases=1 kv=157.6864406779661 kw=616.7708501691287 kvar=202.30083885547424 vminpu=0.85
new load.load_32_B bus1=bus_32.2 Phases=1 kv=157.6864406779661 kw=1156.97590949359 kvar=379.4880983138976 vminpu=0.85
new load.load_33_A bus1=bus_33.1 Phases=1 kv=157.6864406779661 kw=549.8248475884906 kvar=180.3425500090249 vminpu=0.85
new load.load_33_B bus1=bus_33.2 Phases=1 kv=157.6864406779661 kw=1855.3290518915449 kvar=608.5479290204267 vminpu=0.85
new load.load_34_A bus1=bus_34.1 Phases=1 kv=157.6864406779661 kw=125.78699461514776 kvar=41.258134233768466 vminpu=0.85
new load.load_34_B bus1=bus_34.2 Phases=1 kv=157.6864406779661 kw=1933.082091722027 kvar=634.0509260848248 vminpu=0.85
new load.load_35_A bus1=bus_35.1 Phases=1 kv=157.6864406779661 kw=1780.8613497747444 kvar=584.1225227261162 vminpu=0.85
new load.load_35_B bus1=bus_35.2 Phases=1 kv=157.6864406779661 kw=298.36162141660753 kvar=97.86261182464727 vminpu=0.85
new load.load_36_A bus1=bus_36.1 Phases=1 kv=157.6864406779661 kw=1724.193851467779 kvar=565.5355832814315 vminpu=0.85
new load.load_36_B bus1=bus_36.2 Phases=1 kv=157.6864406779661 kw=293.841787780854 kvar=96.38010639212013 vminpu=0.85
new load.load_37_B bus1=bus_37.2 Phases=1 kv=157.6864406779661 kw=1202.6256161143558 kvar=394.4612020855087 vminpu=0.85
new load.load_37_C bus1=bus_37.3 Phases=1 kv=157.6864406779661 kw=1206.1672503784057 kvar=395.6228581241171 vminpu=0.85
new load.load_38_A bus1=bus_38.1 Phases=1 kv=157.6864406779661 kw=86.66599006923924 kvar=28.426444742710473 vminpu=0.85
new load.load_38_B bus1=bus_38.2 Phases=1 kv=157.6864406779661 kw=1151.9768089914935 kvar=377.84839334920986 vminpu=0.85
new load.load_39_A bus1=bus_39.1 Phases=1 kv=157.6864406779661 kw=1790.127100458723 kvar=587.1616889504611 vminpu=0.85
new load.load_39_B bus1=bus_39.2 Phases=1 kv=157.6864406779661 kw=293.81278007449936 kvar=96.3705918644358 vminpu=0.85
new load.load_40_A bus1=bus_40.1 Phases=1 kv=157.6864406779661 kw=476.006229644704 kvar=156.1300433234629 vminpu=0.85
new load.load_40_B bus1=bus_40.2 Phases=1 kv=157.6864406779661 kw=1484.6704591591642 kvar=486.9719106042059 vminpu=0.85
new load.load_41_A bus1=bus_41.1 Phases=1 kv=157.6864406779661 kw=35.59049348112267 kvar=11.673681861808237 vminpu=0.85
new load.load_41_B bus1=bus_41.2 Phases=1 kv=157.6864406779661 kw=1332.957193778272 kvar=437.2099595592733 vminpu=0.85
new load.load_42_A bus1=bus_42.1 Phases=1 kv=157.6864406779661 kw=2084.251474856234 kvar=683.6344837528447 vminpu=0.85
new load.load_43_A bus1=bus_43.1 Phases=1 kv=157.6864406779661 kw=1018.3527430125536 kvar=334.01969970811757 vminpu=0.85
new load.load_44_A bus1=bus_44.1 Phases=1 kv=157.6864406779661 kw=1858.617639214796 kvar=609.6265856624532 vminpu=0.85
new load.load_45_B bus1=bus_45.2 Phases=1 kv=157.6864406779661 kw=1655.1997529776354 kvar=542.9055189766644 vminpu=0.85
new load.load_45_C bus1=bus_45.3 Phases=1 kv=157.6864406779661 kw=944.555370686278 kvar=309.8141615850992 vminpu=0.85
new load.load_46_B bus1=bus_46.2 Phases=1 kv=157.6864406779661 kw=900.1915830252831 kvar=295.2628392322929 vminpu=0.85
new load.load_46_C bus1=bus_46.3 Phases=1 kv=157.6864406779661 kw=1072.1913053081148 kvar=351.67874814106165 vminpu=0.85
new load.load_47_A bus1=bus_47.1 Phases=1 kv=157.6864406779661 kw=1899.0455794677416 kvar=622.8869500654192 vminpu=0.85
new load.load_47_B bus1=bus_47.2 Phases=1 kv=157.6864406779661 kw=104.81310204250218 kvar=34.37869746994072 vminpu=0.85
new load.load_48_A bus1=bus_48.1 Phases=1 kv=157.6864406779661 kw=17.26850968404711 kvar=5.664071176367452 vminpu=0.85
new load.load_48_B bus1=bus_48.2 Phases=1 kv=157.6864406779661 kw=2265.6677859044707 kvar=743.1390337766665 vminpu=0.85
new load.load_49_A bus1=bus_49.1 Phases=1 kv=157.6864406779661 kw=1529.918224857278 kvar=501.8131777531872 vminpu=0.85
new load.load_49_B bus1=bus_49.2 Phases=1 kv=157.6864406779661 kw=139.52888473735982 kvar=45.765474193854025 vminpu=0.85
new load.load_50_A bus1=bus_50.1 Phases=1 kv=157.6864406779661 kw=680.0651840149802 kvar=223.06138035691353 vminpu=0.85
new load.load_50_B bus1=bus_50.2 Phases=1 kv=157.6864406779661 kw=2446.814235879305 kvar=802.5550693684121 vminpu=0.85
new load.load_51_A bus1=bus_51.1 Phases=1 kv=157.6864406779661 kw=946.9074275623954 kvar=310.5856362404657 vminpu=0.85
new load.load_51_B bus1=bus_51.2 Phases=1 kv=157.6864406779661 kw=1006.6115678187716 kvar=330.1685942445571 vminpu=0.85
new load.load_52_A bus1=bus_52.1 Phases=1 kv=157.6864406779661 kw=1474.898009478765 kvar=483.76654710903495 vminpu=0.85
new load.load_53_A bus1=bus_53.1 Phases=1 kv=157.6864406779661 kw=1865.9626422588249 kvar=612.0357466608946 vminpu=0.85
new load.load_54_A bus1=bus_54.1 Phases=1 kv=157.6864406779661 kw=2537.997368022729 kvar=832.4631367114551 vminpu=0.85
new load.load_55_A bus1=bus_55.1 Phases=1 kv=157.6864406779661 kw=2502.2417290843105 kvar=820.7352871396539 vminpu=0.85
new load.load_56_A bus1=bus_56.1 Phases=1 kv=157.6864406779661 kw=873.0946531227253 kvar=286.3750462242539 vminpu=0.85
new load.load_56_B bus1=bus_56.2 Phases=1 kv=157.6864406779661 kw=1093.732259411256 kvar=358.744181086892 vminpu=0.85
new load.load_57_A bus1=bus_57.1 Phases=1 kv=157.6864406779661 kw=1668.1665767181742 kvar=547.1586371635611 vminpu=0.85
new load.load_57_B bus1=bus_57.2 Phases=1 kv=157.6864406779661 kw=441.2160569176482 kvar=144.71886666898862 vminpu=0.85
new load.load_58_A bus1=bus_58.1 Phases=1 kv=157.6864406779661 kw=2332.49708316346 kvar=765.0590432776149 vminpu=0.85
new load.load_59_A bus1=bus_59.1 Phases=1 kv=157.6864406779661 kw=1857.509552654013 kvar=609.2631332705163 vminpu=0.85
new load.load_60_A bus1=bus_60.1 Phases=1 kv=157.6864406779661 kw=2089.307191545534 kvar=685.2927588269351 vminpu=0.85
new load.load_61_B bus1=bus_61.2 Phases=1 kv=157.6864406779661 kw=2773.8045391286096 kvar=909.8078888341839 vminpu=0.85
new load.load_62_B bus1=bus_62.2 Phases=1 kv=157.6864406779661 kw=962.8789731087752 kvar=315.8243031796783 vminpu=0.85
new load.load_62_C bus1=bus_62.3 Phases=1 kv=157.6864406779661 kw=1454.0895274181958 kvar=476.94136499316824 vminpu=0.85
new load.load_63_B bus1=bus_63.2 Phases=1 kv=157.6864406779661 kw=1210.5954816764731 kvar=397.0753179898832 vminpu=0.85
new load.load_63_C bus1=bus_63.3 Phases=1 kv=157.6864406779661 kw=1178.7654301872146 kvar=386.6350611014064 vminpu=0.85
new load.load_64_B bus1=bus_64.2 Phases=1 kv=157.6864406779661 kw=15.287955601256462 kvar=5.01444943721212 vminpu=0.85
new load.load_64_C bus1=bus_64.3 Phases=1 kv=157.6864406779661 kw=1034.6711100836053 kvar=339.37212410742256 vminpu=0.85
new load.load_65_A bus1=bus_65.1 Phases=1 kv=157.6864406779661 kw=84.10351210182269 kvar=27.585951969397843 vminpu=0.85
new load.load_65_B bus1=bus_65.2 Phases=1 kv=157.6864406779661 kw=1733.181313881427 kvar=568.483470953108 vminpu=0.85
new load.load_66_A bus1=bus_66.1 Phases=1 kv=157.6864406779661 kw=763.2416591385589 kvar=250.34326419744733 vminpu=0.85
new load.load_66_B bus1=bus_66.2 Phases=1 kv=157.6864406779661 kw=1044.543076807856 kvar=342.61012919297684 vminpu=0.85
new load.load_67_B bus1=bus_67.2 Phases=1 kv=157.6864406779661 kw=1327.598049397762 kvar=435.45216020246596 vminpu=0.85
new load.load_67_C bus1=bus_67.3 Phases=1 kv=157.6864406779661 kw=125.16904877006556 kvar=41.055447996581506 vminpu=0.85
new load.load_69_B bus1=bus_69.2 Phases=1 kv=157.6864406779661 kw=176.4738599737332 kvar=57.88342607138449 vminpu=0.85
new load.load_69_C bus1=bus_69.3 Phases=1 kv=157.6864406779661 kw=1748.9913667476471 kvar=573.6691682932283 vminpu=0.85
new load.load_70_B bus1=bus_70.2 Phases=1 kv=157.6864406779661 kw=609.0112235427531 kvar=199.75568132202304 vminpu=0.85
new load.load_70_C bus1=bus_70.3 Phases=1 kv=157.6864406779661 kw=527.49371880277 kvar=173.01793976730858 vminpu=0.85
new load.load_71_B bus1=bus_71.2 Phases=1 kv=157.6864406779661 kw=2261.6532330904 kvar=741.8222604536513 vminpu=0.85
new load.load_71_C bus1=bus_71.3 Phases=1 kv=157.6864406779661 kw=237.9381323942736 kvar=78.04370742532174 vminpu=0.85
new load.load_72_A bus1=bus_72.1 Phases=1 kv=157.6864406779661 kw=2018.501409277728 kvar=662.0684622430948 vminpu=0.85
new load.load_73_B bus1=bus_73.2 Phases=1 kv=157.6864406779661 kw=458.12699993849503 kvar=150.26565597982636 vminpu=0.85
new load.load_73_C bus1=bus_73.3 Phases=1 kv=157.6864406779661 kw=1143.189995444125 kvar=374.96631850567303 vminpu=0.85
new load.load_74_A bus1=bus_74.1 Phases=1 kv=157.6864406779661 kw=2320.881688768492 kvar=761.2491939160655 vminpu=0.85
new load.load_75_A bus1=bus_75.1 Phases=1 kv=157.6864406779661 kw=2128.2003610754896 kvar=698.0497184327606 vminpu=0.85
new load.load_76_A bus1=bus_76.1 Phases=1 kv=157.6864406779661 kw=2129.4374061267376 kvar=698.45546920957 vminpu=0.85
new load.load_77_A bus1=bus_77.1 Phases=1 kv=157.6864406779661 kw=1611.0050803397055 kvar=528.4096663514234 vminpu=0.85
new load.load_78_A bus1=bus_78.1 Phases=1 kv=157.6864406779661 kw=2196.8334646339013 kvar=720.5613763999196 vminpu=0.85
new load.load_79_A bus1=bus_79.1 Phases=1 kv=157.6864406779661 kw=2061.501304768524 kvar=676.1724279640758 vminpu=0.85
new load.load_80_B bus1=bus_80.2 Phases=1 kv=157.6864406779661 kw=145.81176908231083 kvar=47.826260258997955 vminpu=0.85
new load.load_80_C bus1=bus_80.3 Phases=1 kv=157.6864406779661 kw=1588.8437769961088 kvar=521.1407588547237 vminpu=0.85
new load.load_81_A bus1=bus_81.1 Phases=1 kv=157.6864406779661 kw=2453.5539215951408 kvar=804.7656862832062 vminpu=0.85
new load.load_82_A bus1=bus_82.1 Phases=1 kv=157.6864406779661 kw=1793.0022703809611 kvar=588.1047446849552 vminpu=0.85
new load.load_83_A bus1=bus_83.1 Phases=1 kv=157.6864406779661 kw=2065.141140510464 kvar=677.3662940874323 vminpu=0.85
new load.load_84_A bus1=bus_84.1 Phases=1 kv=157.6864406779661 kw=2481.7913949199497 kvar=814.0275775337435 vminpu=0.85
new load.load_85_A bus1=bus_85.1 Phases=1 kv=157.6864406779661 kw=1780.668469074759 kvar=584.059257856521 vminpu=0.85
new load.load_86_A bus1=bus_86.1 Phases=1 kv=157.6864406779661 kw=2139.1086624131926 kvar=701.6276412715272 vminpu=0.85
new load.load_87_A bus1=bus_87.1 Phases=1 kv=157.6864406779661 kw=1567.0182443840026 kvar=513.9819841579529 vminpu=0.85
new load.load_88_A bus1=bus_88.1 Phases=1 kv=157.6864406779661 kw=2458.0530575898106 kvar=806.241402889458 vminpu=0.85
new load.load_89_A bus1=bus_89.1 Phases=1 kv=157.6864406779661 kw=2264.2840871024323 kvar=742.6851805695978 vminpu=0.85
new load.load_90_A bus1=bus_90.1 Phases=1 kv=157.6864406779661 kw=1843.856189313388 kvar=604.7848300947913 vminpu=0.85
new load.load_91_A bus1=bus_91.1 Phases=1 kv=157.6864406779661 kw=3121.7296250015 kvar=1023.927317000492 vminpu=0.85
new load.load_92_A bus1=bus_92.1 Phases=1 kv=157.6864406779661 kw=2291.105931547846 kvar=751.4827455476935 vminpu=0.85
new load.load_93_A bus1=bus_93.1 Phases=1 kv=157.6864406779661 kw=1972.9216120759968 kvar=647.1182887609269 vminpu=0.85
new load.load_94_A bus1=bus_94.1 Phases=1 kv=157.6864406779661 kw=2131.54718595364 kvar=699.1474769927939 vminpu=0.85
new load.load_95_A bus1=bus_95.1 Phases=1 kv=157.6864406779661 kw=1387.4686223007295 kvar=455.0897081146393 vminpu=0.85
new load.load_96_A bus1=bus_96.1 Phases=1 kv=157.6864406779661 kw=2099.3259044586 kvar=688.5788966624208 vminpu=0.85
new load.load_97_A bus1=bus_97.1 Phases=1 kv=157.6864406779661 kw=2106.4373464351224 kvar=690.9114496307202 vminpu=0.85
new load.load_98_A bus1=bus_98.1 Phases=1 kv=157.6864406779661 kw=2303.762057485417 kvar=755.6339548552168 vminpu=0.85
new load.load_99_A bus1=bus_99.1 Phases=1 kv=157.6864406779661 kw=2446.9074310511337 kvar=802.5856373847719 vminpu=0.85
new load.load_100_A bus1=bus_100.1 Phases=1 kv=157.6864406779661 kw=1983.1245970174773 kvar=650.4648678217326 vminpu=0.85
new load.load_101_A bus1=bus_101.1 Phases=1 kv=157.6864406779661 kw=2334.488928434582 kvar=765.7123685265428 vminpu=0.85
new load.load_102_A bus1=bus_102.1 Phases=1 kv=157.6864406779661 kw=1703.775700087648 kvar=558.8384296287485 vminpu=0.85
new load.load_103_A bus1=bus_103.1 Phases=1 kv=157.6864406779661 kw=2525.816158118293 kvar=828.4676998628001 vminpu=0.85
new load.load_104_A bus1=bus_104.1 Phases=1 kv=157.6864406779661 kw=1936.882748261548 kvar=635.2975414297878 vminpu=0.85
new load.load_105_A bus1=bus_105.1 Phases=1 kv=157.6864406779661 kw=2407.0187618673444 kvar=789.502153892489 vminpu=0.85
new load.load_106_A bus1=bus_106.1 Phases=1 kv=157.6864406779661 kw=1547.906150838001 kvar=507.71321747486434 vminpu=0.85
new load.load_107_A bus1=bus_107.1 Phases=1 kv=157.6864406779661 kw=2334.8527783846484 kvar=765.8317113101647 vminpu=0.85
new load.load_108_A bus1=bus_108.1 Phases=1 kv=157.6864406779661 kw=2312.367713067171 kvar=758.4566098860321 vminpu=0.85
new load.load_109_A bus1=bus_109.1 Phases=1 kv=157.6864406779661 kw=2263.289574679625 kvar=742.358980494917 vminpu=0.85
new load.load_110_A bus1=bus_110.1 Phases=1 kv=157.6864406779661 kw=1721.874392195178 kvar=564.7748006400184 vminpu=0.85
new load.load_111_A bus1=bus_111.1 Phases=1 kv=157.6864406779661 kw=1770.4924171474918 kvar=580.7215128243773 vminpu=0.85
new load.load_112_C bus1=bus_112.3 Phases=1 kv=157.6864406779661 kw=2358.6277481098778 kvar=773.6299013800399 vminpu=0.85
new load.load_113_C bus1=bus_113.3 Phases=1 kv=157.6864406779661 kw=2235.54947163954 kvar=733.2602266977692 vminpu=0.85
new load.load_114_C bus1=bus_114.3 Phases=1 kv=157.6864406779661 kw=1651.576906200367 kvar=541.7172252337203 vminpu=0.85
new load.load_115_B bus1=bus_115.2 Phases=1 kv=157.6864406779661 kw=1085.3429239631837 kvar=355.9924790599243 vminpu=0.85
new load.load_115_C bus1=bus_115.3 Phases=1 kv=157.6864406779661 kw=707.063188801394 kvar=231.91672592685723 vminpu=0.85
new load.load_116_A bus1=bus_116.1 Phases=1 kv=157.6864406779661 kw=1988.877649469948 kvar=652.3518690261429 vminpu=0.85
new load.load_117_A bus1=bus_117.1 Phases=1 kv=157.6864406779661 kw=2029.656183238328 kvar=665.7272281021716 vminpu=0.85

!---------------- SOLUTION ----------------

set controlmode=off
Set Voltagebases=[157.6864406779661]
calcv
Solve